!B3LYP DEF2-TZVP NUMFREQ
%geom optimizehydrogens true
end
* xyz 0 1
 C                 -7.34295922   -4.69926318    0.57380837
 C                 -5.95011122   -4.69926318    0.57380837
 C                 -5.24164822   -3.49077818    0.57380837
 C                 -5.95876122   -2.26616918    0.57384637
 C                 -7.37789522   -2.27550518    0.57387637
 C                 -8.05470522   -3.50192318    0.57377337
 C                 -3.80259322   -3.44869618    0.57387337
 C                 -5.24997522   -1.02036418    0.57406537
 C                 -3.83088722   -1.01104118    0.57410037
 C                 -3.13176922   -2.26956218    0.57396237
 C                 -3.15404422    0.21544882    0.57425737
 H                 -2.05386322    0.22831682    0.57422537
 C                 -3.86576722    1.41271982    0.57440837
 C                 -5.25868222    1.41271982    0.57443537
 C                 -5.96710822    0.20428382    0.57422737
 C                 -7.40619522    0.16215482    0.57401737
 C                 -8.07701122   -1.01696318    0.57386237
 H                 -9.17757922   -1.04501718    0.57333937
 H                 -7.94450222    1.12250282    0.57409937
 H                 -3.26443022   -4.40909618    0.57357737
 H                 -7.88717722   -5.65574618    0.57354537
 H                 -5.39905822   -5.65154918    0.57371437
 H                 -9.15486222   -3.51475518    0.57339337
 H                 -2.03122022   -2.24161718    0.57367537
 H                 -3.32164222    2.36928682    0.57438337
 H                 -5.80966022    2.36508082    0.57445337
*

